<?xml version="1.0" encoding="UTF-8"?>

<!-- generated on 2024-09-11 16:14:03 by Eclipse SUMO duarouter Version 1.20.0
<configuration xmlns:xsi="http://www.w3.org/2001/XMLSchema-instance" xsi:noNamespaceSchemaLocation="http://sumo.dlr.de/xsd/duarouterConfiguration.xsd">

    <input>
        <net-file value="chuanchi.net.xml"/>
        <route-files value="trips.trips.xml"/>
    </input>

    <output>
        <output-file value="chuanchi.rou.xml"/>
    </output>

    <time>
        <begin value="0"/>
        <end value="500"/>
    </time>

    <report>
        <no-warnings value="true"/>
        <ignore-errors value="true"/>
        <no-step-log value="true"/>
    </report>

</configuration>
-->

<routes xmlns:xsi="http://www.w3.org/2001/XMLSchema-instance" xsi:noNamespaceSchemaLocation="http://sumo.dlr.de/xsd/routes_file.xsd">
    <vehicle id="0" depart="0.00">
        <route edges="35113222#2 724451983#0 724451983#1 724451983#2 -35114583 223637314#0 223637314#1 223637314#2 223637314#3 1214265358 -1214265358"/>
    </vehicle>
    <vehicle id="1" depart="1.00">
        <route edges="1201009710#0 1201009710#1 701023320#0 701023320#1 701023320#2 701023320#3 701023320#4 227742838 466513741 1144283678 1180976159 724436409#0 724436409#1 220862996#0 220862996#1 220862996#2 220862996#3 220862996#4 220862996#5 220862996#6 1265743189#0 1265743189#1 1267138239 466200149 1265743190 1267006213 1265743177#0 35113101#0 35113101#1 35113101#2 1267913080 1162414403#0 1162414403#1 1162414403#2 1162414403#3 1162414403#4"/>
    </vehicle>
    <vehicle id="2" depart="2.00">
        <route edges="35115101#0 35115101#1 35115101#2 35115101#3 35115101#4 -35115101#4 -35115101#3 -35115101#2 -35115101#1 -35115101#0 466200149 1265743190 1267006213 1265743177#0 1265743177#1 257394825#0 257394825#1 257394825#2 220863461#0 220863461#1 220863461#2 220863461#3 818385418#0 818385418#1 608255650 227739703#0 227739703#1 227739703#2 326849844#0 326849844#1 1201009711#0 1201009711#1 654858471#0 654858471#1 35114039"/>
    </vehicle>
    <vehicle id="3" depart="3.00">
        <route edges="724391096#1 724391096#2 719043756#4 719043756#5 719043756#6 1265743177#0 1265743177#1 257394825#0 257394825#1 257394825#2 220863461#0 220863461#1 220863461#2 220863461#3 818385418#0 818385418#1 723823269#0 723823269#1 35115032 230935041#0 230935041#1 230935041#2 230935041#3 230935041#4 223637314#0 223637314#1 223637314#2 223637314#3 817507913#0 817507913#1 817507913#2 817507913#3 1271931206#0 1271931206#1 1214266137#0 1214266137#1 -35113845"/>
    </vehicle>
    <vehicle id="4" depart="4.00">
        <route edges="192680178#4 1267006213 1265743177#0 1265743177#1 257394825#0 257394825#1 257394825#2 220863461#0 220863461#1 220863461#2 220863461#3 818385418#0 818385418#1 608255650 227739703#0 227739703#1 227739703#2 -1265405856"/>
    </vehicle>
    <vehicle id="5" depart="5.00">
        <route edges="1162414403#1 1162414403#2 1162414403#3 1162414403#4 1162414403#5 1162414403#6 1162414403#7 1162414403#8 1162414403#9 1162414403#10 1162414403#11 -1201009711#1 -1201009711#0 1201009710#0 1201009710#1 701023320#0 701023320#1 701023320#2 701023320#3 701023320#4 227742838 230935039#0 230935039#1 230935039#2 230935039#3 230935039#4"/>
    </vehicle>
    <vehicle id="7" depart="7.00">
        <route edges="35113620#3 35113620#4 35113620#5 35113620#6 35113620#7 35113620#8 1123850379 -1276694408#2 -1276694408#1 -1276694408#0 -408162167 724436410#0 724436410#1 -541781966 818385418#0 818385418#1 723823269#0 723823269#1 35115032 227742838 230935039#0 230935039#1 230935039#2 230935039#3 230935039#4 1271423730#0 1271423730#1 1271423730#2 -1185915485 288732439#0 288732439#1 288732439#2 288732439#3"/>
    </vehicle>
    <vehicle id="10" depart="10.00">
        <route edges="654858471#7 725104583#0 327048054#4 327048054#5 1222962347 1222962346#0 1222962346#1 1222962346#2 1222962346#3 1222962346#4 35114583 230934667#0 230934667#1 230934667#2 466513741 1144283678 1180976159 724436409#0 724436409#1 220862996#0 220862996#1 220862996#2 220862996#3 220862996#4 220862996#5 220862996#6 1265743189#0 1265743189#1 1267138239 466200149 1265743190 466130926#0 466130926#1 466130926#2 466130926#3 -565183106 35114729#0"/>
    </vehicle>
    <vehicle id="11" depart="11.00">
        <route edges="1265743190 1267006213 1265743177#0 1265743177#1 257394825#0 257394825#1 257394825#2 220863461#0 220863461#1 220863461#2 220863461#3 818385418#0 818385418#1 723823269#0 723823269#1 35115032 230935041#0 230935041#1 230935041#2 230935041#3 230935041#4 35114583 724451984#0 724451984#1 724451984#2 724451984#3 230934666#0 230934666#1 303754188 1293827479#0 1293827479#1 1293827479#2 1293827479#3 1293827479#4 1293827479#5 1293827479#6 724451986#0 724451986#1 724451986#2 303754190 -303754190 -724451986#2 -724451986#1 -724451986#0"/>
    </vehicle>
    <vehicle id="12" depart="12.00">
        <route edges="724472305#6 724472305#7 -724472305#7 -724472305#6 -724472305#5 -724472305#4 -1293827479#6 -1293827479#5 -1293827479#4 -1293827479#3 -1293827479#2 -1293827479#1 -1293827479#0 -303754188 -230934666#1 -230934666#0 724451983#0 724451983#1 724451983#2 230934667#0 230934667#1 230934667#2 466513741 817513414 1267006214#0"/>
    </vehicle>
    <vehicle id="13" depart="13.00">
        <route edges="-35113845 700026885#3 700026885#4 1185423294 1214266136 1185423293#0 1185423293#1 1185423293#2 723852733#0 723852733#1 723852733#2 723852733#3 -35114659#2"/>
    </vehicle>
    <vehicle id="14" depart="14.00">
        <route edges="719043756#2 719043756#3 719043756#4 719043756#5 719043756#6 1265743177#0 35113101#0 35113101#1 35113101#2 1267913079#0 1267913079#1 1267913079#2 1267913079#3 1267913079#4 1267913079#5 716065020#0 758856171#1 758856171#2 329878185#2 329878185#3 329878185#4"/>
    </vehicle>
    <vehicle id="15" depart="15.00">
        <route edges="654858471#8 35113721#1 327048054#3 327048054#4 327048054#5 1222962347 1222962346#0 1222962346#1 1222962346#2 1222962346#3 1222962346#4 35114583 230934667#0 230934667#1 230934667#2 466513741 1144283678 1180976159 724436409#0 724436409#1 220862996#0 220862996#1 220862996#2 220862996#3 220862996#4 220862996#5 220862996#6 1265743189#0 1265743189#1 1267138239 35115101#0 35115101#1"/>
    </vehicle>
    <vehicle id="16" depart="16.00">
        <route edges="266769168#0 266769168#1 266769168#2 266769168#3 817507914#0 817507914#1 817507914#2 230934667#0 230934667#1 230934667#2 466513741 1144283678 1180976159 724436409#0 724436409#1 220862996#0 220862996#1 220862996#2 220862996#3 220862996#4 220862996#5 220862996#6 1265743189#0 1265743189#1 1267138239 466200149 1265743190 1267006213 1265743177#0 35113101#0 35113101#1 35113101#2 1267913079#0 1267913079#1 1267913079#2 1267913079#3 1267913079#4 1267913079#5 716065020#0 758856171#1 758856171#2"/>
    </vehicle>
    <vehicle id="17" depart="17.00">
        <route edges="1271931205 266769168#0 266769168#1 266769168#2 266769168#3 817507914#0 817507914#1 817507914#2 230934667#0 230934667#1 230934667#2 230935039#0 230935039#1 227742900 288732439#6"/>
    </vehicle>
    <vehicle id="18" depart="18.00">
        <route edges="701023320#0 701023320#1 701023320#2 701023320#3 701023320#4 227742838 466513741 1144283678 1180976159 724436409#0 724436409#1 220862996#0 220862996#1 220862996#2 220862996#3 220862996#4 220862996#5 220862996#6 1265743189#0 1265743189#1 1267138239 35115101#0 35115101#1 35115101#2 35115101#3 35115101#4 35112972#0"/>
    </vehicle>
    <vehicle id="20" depart="20.00">
        <route edges="35114659#2 -35114659#2 -35114659#1 -35114659#0 303754188 1293827479#0 1293827479#1 1293827479#2 1293827479#3 1293827479#4 1293827479#5 1293827479#6 -1293827479#6 -1293827479#5 -1293827479#4 -1293827479#3"/>
    </vehicle>
    <vehicle id="21" depart="21.00">
        <route edges="1162414403#4 1162414403#5 1162414403#6 1162414403#7 1162414403#8 1162414403#9 1162414403#10 1162414403#11 -1201009711#1 -1201009711#0 1201009710#0 1201009710#1 701023320#0 701023320#1 701023320#2 701023320#3 701023320#4 227742838 230935039#0 230935039#1 230935039#2 230935039#3 230935039#4 1271423730#0 1271423730#1 1271423730#2 -1185915485 -1219420939 1219420939"/>
    </vehicle>
    <vehicle id="22" depart="22.00">
        <route edges="-35113721#1 35113721#1 327048054#3 327048054#4 327048054#5 1222962347 1222962346#0 1222962346#1 1222962346#2 1222962346#3 1222962346#4 35114583 230934667#0 230934667#1 230934667#2 466513741 1144283678 1180976159 724436409#0 724436409#1 220862996#0 220862996#1 220862996#2 220862996#3 220862996#4 220862996#5 220862996#6 1265743189#0 1265743189#1 1267138239 466200149 1265743190 1267006213 1265743177#0 35113101#0 35113101#1 35113101#2 1267913080 1162414403#0 1162414403#1 1162414403#2 1162414403#3 1162414403#4 1162414403#5 1162414403#6 1162414403#7 1162414403#8 1162414403#9"/>
    </vehicle>
    <vehicle id="23" depart="23.00">
        <route edges="-35114659#0 -230934666#1 -230934666#0 724451983#0 724451983#1 724451983#2 230934667#0 230934667#1 230934667#2 466513741 817513414 1267006214#0 1267006214#1 227739703#0 227739703#1 227739703#2 326849844#0 326849844#1 1201009711#0 1201009711#1 193256696#0 193256696#1 193256696#2 193256696#3 35114852#0 35114852#1 35114852#2 35114852#3 35114852#4 1205444142#0 1205444142#1"/>
    </vehicle>
    <vehicle id="24" depart="24.00">
        <route edges="35113222#0 35113222#1 35113222#2 724451983#0 724451983#1 724451983#2 230934667#0 230934667#1 230934667#2 230935039#0 230935039#1 230935039#2 230935039#3 230935039#4 1271423730#0 1271423730#1 1271423730#2 1271423730#3"/>
    </vehicle>
    <vehicle id="25" depart="25.00">
        <route edges="1271423730#2 -1185915485 288732439#0 288732439#1 288732439#2 288732439#3 288732439#4 288732439#5 288732439#6 1186109890 1180976159 724436409#0 724436409#1 220862996#0 220862996#1 220862996#2 220862996#3 220862996#4 220862996#5 220862996#6 1265743189#0 1265743189#1 1267138239 466200149 1265743190 1267006213 1265743177#0 35113101#0 35113101#1 35113101#2 1267913080 1162414403#0"/>
    </vehicle>
    <vehicle id="26" depart="26.00">
        <route edges="1185915486#0 1185915486#1 1185915486#2 288732439#0 288732439#1 288732439#2 288732439#3 288732439#4 288732439#5 -227742900 35113222#0 35113222#1 35113222#2 230934666#0 230934666#1 35114659#0 35114659#1 35114659#2 723852733#4 723852733#5 723852733#6 723852733#7 723852733#8 724469878#0 724469878#1"/>
    </vehicle>
    <vehicle id="27" depart="27.00">
        <route edges="35113620#2 35113620#3 35113620#4 -35112972#2 -35112972#1 -35112972#0 -35115101#4 -35115101#3 -35115101#2 -35115101#1 -35115101#0 466200149 1265743190 1267006213 1265743177#0 35113101#0 35113101#1 35113101#2 1267913080 329878185#7"/>
    </vehicle>
    <vehicle id="28" depart="28.00">
        <route edges="-724472305#1 -724472305#0 -723828604 723828604 724472305#0 724472305#1 724472305#2 724472305#3 -1293827479#6 -1293827479#5 -1293827479#4 -1293827479#3 -1293827479#2 -1293827479#1 -1293827479#0 -303754188 -230934666#1 -230934666#0 724451983#0 724451983#1 724451983#2 230934667#0 230934667#1 230934667#2 466513741 1144283678 1180976159 724436409#0 724436409#1 220862996#0 220862996#1 220862996#2 220862996#3 220862996#4 220862996#5 220862996#6 1265743189#0 1265743189#1 1267138239 35115101#0 35115101#1"/>
    </vehicle>
    <vehicle id="29" depart="29.00">
        <route edges="-724451986#0 -1293827479#6 -1293827479#5 -1293827479#4 -1293827479#3 -1293827479#2 -1293827479#1 -1293827479#0 -303754188 -230934666#1 -230934666#0 724451983#0 724451983#1 724451983#2 230934667#0 230934667#1 230934667#2 466513741 1144283678 1180976159 724436409#0 724436409#1 724436411#0 724436411#1 408162167 1276694408#0 1276694408#1 1276694408#2 -1123850379 1276296305"/>
    </vehicle>
    <vehicle id="30" depart="30.00">
        <route edges="817507914#2 230934667#0 230934667#1 230934667#2 466513741 1144283678 1180976159 724436409#0 724436409#1 220862996#0 220862996#1 220862996#2 220862996#3 220862996#4 220862996#5 220862996#6 1265743189#0 35113620#0"/>
    </vehicle>
    <vehicle id="32" depart="32.00">
        <route edges="716065021 1262797778 320379106#0 320379106#1 320379106#2 724391095#0 724391095#1 724391095#2 724391098 724391097 724391096#0 724391096#1 724391096#2 719043756#4 719043756#5 719043756#6 1265743177#0 1265743177#1 257394825#0 257394825#1 257394825#2 220863461#0 220863461#1 220863461#2 220863461#3 541781966"/>
    </vehicle>
    <vehicle id="33" depart="33.00">
        <route edges="1162414403#4 1162414403#5 1162414403#6 1162414403#7 1162414403#8 1162414403#9 1162414403#10 1162414403#11 -1201009711#1 -1201009711#0 1201009710#0 1201009710#1 701023320#0 701023320#1 701023320#2 701023320#3 701023320#4 227742838 466513741 1144283678 1180976159 724436409#0 724436409#1 724436411#0 724436411#1 408162167 1276694408#0 1276694408#1 1276694408#2 -1276694408#2 -1276694408#1 -1276694408#0"/>
    </vehicle>
    <vehicle id="34" depart="34.00">
        <route edges="1228550741 35114023 1228550742#0 1228550742#1 1228550742#2 1228550742#3 1267913080 1162414403#0 1162414403#1 1162414403#2 1162414403#3 1162414403#4 1162414403#5 1162414403#6 1162414403#7 1162414403#8 1162414403#9 1162414403#10 1162414403#11 -1201009711#1 -1201009711#0 1201009710#0 1201009710#1"/>
    </vehicle>
    <vehicle id="35" depart="35.00">
        <route edges="1144283676#1 817513414 35115032 227742838 230935039#0 230935039#1 230935039#2 230935039#3 230935039#4 1271423730#0 1271423730#1 1271423730#2 1271423730#3 1271423730#4 1271423730#5 723828604 724472305#0"/>
    </vehicle>
    <vehicle id="36" depart="36.00">
        <route edges="723852733#5 723852733#6 723852733#7 723852733#8 724469878#0 724469878#1 724469878#2 724469878#3 -724472305#7 -724472305#6 -724472305#5 -724472305#4 -1293827479#6 -1293827479#5 -1293827479#4 -1293827479#3 -1293827479#2 -1293827479#1 -1293827479#0 -303754188 -230934666#1 -230934666#0 724451983#0 724451983#1 724451983#2 230934667#0 230934667#1 230934667#2 466513741 1144283678 1180976159 724436409#0 724436409#1 220862996#0 220862996#1 220862996#2 220862996#3 220862996#4 220862996#5 220862996#6 1265743189#0 1265743189#1 1267138239 466200149 1265743190 466130926#0 466130926#1 466130926#2 466130926#3 466130926#4 466130926#5 -1132278756 1228550741 35114023 1228550742#0 1228550742#1 1228550742#2"/>
    </vehicle>
    <vehicle id="37" depart="37.00">
        <route edges="35113620#5 35113620#6 35113620#7 35113620#8 1123850379 -1276694408#2 -1276694408#1 -1276694408#0 -408162167 724436410#0 724436410#1 -541781966 818385418#0 818385418#1 723823269#0 723823269#1 35115032 230935041#0 230935041#1 230935041#2 230935041#3 230935041#4 35114583 724451984#0 724451984#1 724451984#2 724451984#3 230934666#0 230934666#1 303754188 1293827479#0 1293827479#1 1293827479#2 1293827479#3"/>
    </vehicle>
    <vehicle id="38" depart="38.00">
        <route edges="724451983#0 724451983#1 724451983#2 230934667#0 230934667#1 230934667#2 466513741 817513414 1267006214#0 1267006214#1 227739703#0"/>
    </vehicle>
    <vehicle id="39" depart="39.00">
        <route edges="1185915485 -1185915485 288732439#0 288732439#1 288732439#2 288732439#3 288732439#4 288732439#5 288732439#6 1144283676#0 1144283676#1 817513414 35115032 230935041#0 230935041#1 230935041#2 230935041#3 230935041#4 223637314#0 223637314#1 223637314#2 223637314#3 817507913#0 817507913#1 817507913#2 817507913#3 1271931206#0 1271931206#1 1214266136 1185423293#0"/>
    </vehicle>
    <vehicle id="40" depart="40.00">
        <route edges="320379106#0 320379106#1 320379106#2 724391095#0 724391095#1 724391095#2 724391098 724391097 724391096#0 724391096#1 724391096#2 719043756#4 719043756#5 719043756#6 1265743177#0 1265743177#1 257394825#0 257394825#1 257394825#2 220863461#0 220863461#1 220863461#2 220863461#3 818385418#0 818385418#1 723823269#0 723823269#1 35115032 227742838 230935039#0 230935039#1 227742900 288732439#6 1186109890"/>
    </vehicle>
    <vehicle id="41" depart="41.00">
        <route edges="327048054#1 327048054#2 327048054#3 327048054#4 327048054#5 1222962347 1222962346#0 1222962346#1 1222962346#2 1222962346#3 1222962346#4 35114583 230934667#0 230934667#1 230934667#2 466513741 1144283678 1180976159 724436409#0 724436409#1 220862996#0 220862996#1 220862996#2 220862996#3 220862996#4 220862996#5 220862996#6 1265743189#0 1265743189#1 1267138239 466200149 1265743190 466130926#0 466130926#1 466130926#2 466130926#3 466130926#4 466130926#5 -1132278756 1228550741 35114023 1228550742#0 1228550742#1 1228550742#2 724391098 724391097"/>
    </vehicle>
    <vehicle id="42" depart="42.00">
        <route edges="1293827479#2 -1293827479#2 -1293827479#1 -1293827479#0 -303754188 -230934666#1 -230934666#0 724451983#0 724451983#1 724451983#2 230934667#0 230934667#1 230934667#2 466513741 1144283678 1180976159 724436409#0 724436409#1 220862996#0 220862996#1 220862996#2 220862996#3 220862996#4 220862996#5 220862996#6 1265743189#0 1265743189#1 1267138239 466200149 1265743190 1267006213 1265743177#0 35113101#0 35113101#1 35113101#2 1267913080 1162414403#0 1162414403#1 1162414403#2 1162414403#3"/>
    </vehicle>
    <vehicle id="43" depart="43.00">
        <route edges="818385418#1 723823269#0 723823269#1 35115032 230935041#0 230935041#1"/>
    </vehicle>
    <vehicle id="44" depart="44.00">
        <route edges="-35113810 691380029 320379106#1 320379106#2 724391095#0 724391095#1 724391095#2 724391098 724391097 724391096#0 724391096#1 724391096#2 719043756#4 719043756#5 719043756#6 1265743177#0 1265743177#1 257394825#0 257394825#1 257394825#2 220863461#0 220863461#1 220863461#2 220863461#3 818385418#0 818385418#1 723823269#0 723823269#1 35115032 230935041#0 230935041#1 230935041#2 230935041#3 230935041#4 35114583 724451984#0 724451984#1 724451984#2 724451984#3 230934666#0 230934666#1 303754188 1293827479#0 1293827479#1 1293827479#2 1293827479#3 1293827479#4 1293827479#5 1293827479#6 -1293827479#6 -1293827479#5 -1293827479#4"/>
    </vehicle>
    <vehicle id="45" depart="45.00">
        <route edges="-35114729#1 724391096#0 724391096#1 724391096#2 719043756#4 719043756#5 719043756#6 1265743177#0 35113101#0 35113101#1"/>
    </vehicle>
    <vehicle id="47" depart="47.00">
        <route edges="-230934666#1 -230934666#0 724451983#0 724451983#1 724451983#2 230934667#0 230934667#1 230934667#2 466513741 1144283678 1180976159 724436409#0 724436409#1 724436411#0 724436411#1 408162167 1276694408#0"/>
    </vehicle>
    <vehicle id="48" depart="48.00">
        <route edges="818385418#1 723823269#0 723823269#1 35115032 227742838 466513741 1144283678 1180976159 724436409#0 724436409#1 220862996#0 220862996#1 220862996#2 220862996#3 220862996#4 220862996#5 220862996#6 1265743189#0 1265743189#1 1267138239 466200149 1265743190 1267006213 1265743177#0 1265743177#1 257394825#0 257394825#1 257394825#2"/>
    </vehicle>
    <vehicle id="49" depart="49.00">
        <route edges="758856171#0 758856171#1 758856171#2 329878185#2 329878185#3 329878185#4 329878185#5 329878185#6 329878185#7 329878185#8 329878185#9 329878185#10 329878185#11 329878185#12 220863461#0 220863461#1 220863461#2 220863461#3 818385418#0 818385418#1 723823269#0 723823269#1"/>
    </vehicle>
    <vehicle id="50" depart="50.00">
        <route edges="-1185423785 1222962347 1176155754#0 1176155754#1 1265405856 326849844#0 326849844#1 1201009711#0 1201009711#1 193256696#0 193256696#1 193256696#2 193256696#3 35114852#0 35114852#1 35114852#2 35114852#3"/>
    </vehicle>
    <vehicle id="51" depart="51.00">
        <route edges="35114033 35113101#1 35113101#2 1267913080 329878185#7 329878185#8 329878185#9 329878185#10 329878185#11 329878185#12 220863461#0 220863461#1 220863461#2 220863461#3 818385418#0 818385418#1 723823269#0 723823269#1 35115032 230935041#0 230935041#1 230935041#2 230935041#3 230935041#4 223637314#0 223637314#1 223637314#2 223637314#3 817507913#0 817507913#1 817507913#2 817507913#3 1271931205 266769168#0 266769168#1 266769168#2 266769168#3"/>
    </vehicle>
    <vehicle id="52" depart="52.00">
        <route edges="1185915486#0 1185915486#1 1185915486#2 288732439#0 288732439#1 288732439#2 288732439#3 288732439#4 288732439#5 288732439#6 1186109890 1180976159 724436409#0 724436409#1 220862996#0 220862996#1 220862996#2 220862996#3 220862996#4 220862996#5 220862996#6 1265743189#0 35113620#0 35113620#1"/>
    </vehicle>
    <vehicle id="53" depart="53.00">
        <route edges="-35114729#2 -35114729#1 724391096#0 724391096#1 724391096#2 719043756#4 719043756#5 719043756#6 1265743177#0 1265743177#1 257394825#0 257394825#1 257394825#2 220863461#0 220863461#1 220863461#2 220863461#3 541781966 220862996#0 220862996#1 220862996#2 220862996#3 220862996#4"/>
    </vehicle>
    <vehicle id="54" depart="54.00">
        <route edges="220863461#3 818385418#0 818385418#1 723823269#0 723823269#1 35115032 230935041#0 230935041#1 230935041#2 230935041#3 230935041#4 35114583 724451984#0 724451984#1 724451984#2 724451984#3 230934666#0 230934666#1 303754188 1293827479#0 1293827479#1 1293827479#2 1293827479#3 1293827479#4 1293827479#5 1293827479#6 724472305#4 724472305#5"/>
    </vehicle>
    <vehicle id="55" depart="55.00">
        <route edges="723852733#5 723852733#6 723852733#7 723852733#8 724469878#0 724469878#1 724469878#2 724469878#3 -724472305#7 -724472305#6 -724472305#5 -724472305#4 -1293827479#6 -1293827479#5 -1293827479#4 -1293827479#3 -1293827479#2 -1293827479#1 -1293827479#0 -303754188 -230934666#1 -230934666#0 724451983#0 724451983#1 724451983#2 230934667#0 230934667#1 230934667#2 230935039#0 230935039#1 227742900 288732439#6 1186109890"/>
    </vehicle>
    <vehicle id="56" depart="56.00">
        <route edges="230934667#1 230934667#2 230935039#0 230935039#1 35113222#0 35113222#1 35113222#2 230934666#0 230934666#1 303754188 1293827479#0 1293827479#1 1293827479#2 1293827479#3 1293827479#4 1293827479#5 1293827479#6 724472305#4 724472305#5 724472305#6 724472305#7 -724472305#7"/>
    </vehicle>
    <vehicle id="57" depart="57.00">
        <route edges="724436411#1 724436410#0 724436410#1 -541781966 818385418#0 818385418#1 723823269#0 723823269#1 35115032 230935041#0 230935041#1 230935041#2 230935041#3 230935041#4 223637314#0 223637314#1 223637314#2 223637314#3 817507913#0 817507913#1 817507913#2 817507913#3 1271931205 723852733#0 723852733#1 723852733#2 723852733#3"/>
    </vehicle>
    <vehicle id="58" depart="58.00">
        <route edges="1214266137#1 408200597#0 408200597#1 35113721#5 230934665#3 230934665#4 230934665#5 230934665#6 230934665#7 230934665#8 1185423293#0 1185423293#1 1185423293#2 266769168#0 266769168#1 266769168#2 266769168#3 817507914#0 817507914#1 817507914#2 230934667#0 230934667#1 230934667#2 466513741 1144283678 1180976159 724436409#0 724436409#1 220862996#0 220862996#1 220862996#2 220862996#3 220862996#4 220862996#5 220862996#6 1265743189#0 35113620#0"/>
    </vehicle>
    <vehicle id="59" depart="59.00">
        <route edges="329878185#3 329878185#4 1205444142#0 1205444142#1 716065021 1262797778 -1262797778 -716065021"/>
    </vehicle>
    <vehicle id="60" depart="60.00">
        <route edges="466130926#2 466130926#3 -565183106 719043756#2 719043756#3 719043756#4 719043756#5 719043756#6 1265743177#0 1265743177#1 257394825#0 257394825#1 257394825#2 220863461#0 220863461#1 220863461#2 220863461#3 818385418#0 818385418#1 723823269#0 723823269#1 35115032 227742838 230935039#0 230935039#1 230935039#2 230935039#3 230935039#4 1271423730#0 1271423730#1 1271423730#2 -1185915485 288732439#0"/>
    </vehicle>
    <vehicle id="61" depart="61.00">
        <route edges="466513741 817513414 35115032 230935041#0 230935041#1 230935041#2 230935041#3 230935041#4 223637314#0 223637314#1 223637314#2 223637314#3 817507913#0 817507913#1 817507913#2 817507913#3 1271931205 266769168#0"/>
    </vehicle>
    <vehicle id="62" depart="62.00">
        <route edges="-1123850379 1123850379 -1276694408#2 -1276694408#1 -1276694408#0 -408162167 724436410#0 724436410#1 220862996#0 220862996#1 220862996#2 220862996#3 220862996#4 220862996#5 220862996#6 1265743189#0 1265743189#1 1267138239 466200149 1265743190 1267006213 1265743177#0"/>
    </vehicle>
    <vehicle id="63" depart="63.00">
        <route edges="-120276784#1 -120276784#0 120276784#0 120276784#1 1219420939 1185915485 1271423730#3 1271423730#4 1271423730#5 723828604 724472305#0 724472305#1 724472305#2 724472305#3 724451986#0"/>
    </vehicle>
    <vehicle id="64" depart="64.00">
        <route edges="723852733#6 723852733#7 723852733#8 724469878#0 724469878#1 724469878#2 724469878#3 -724472305#7 -724472305#6 -724472305#5 -724472305#4 -1293827479#6 -1293827479#5 -1293827479#4 -1293827479#3 -1293827479#2 -1293827479#1 -1293827479#0 -303754188 -230934666#1 -230934666#0 724451983#0 724451983#1 724451983#2 230934667#0 230934667#1 230934667#2 466513741 817513414 1267006214#0 1267006214#1 227739703#0 227739703#1 227739703#2 -1265405856 701023320#0 701023320#1 701023320#2"/>
    </vehicle>
    <vehicle id="65" depart="65.00">
        <route edges="1222962346#2 1222962346#3 1222962346#4 35114583 724451984#0 724451984#1 724451984#2 724451984#3 230934666#0 230934666#1 -230934666#1"/>
    </vehicle>
    <vehicle id="66" depart="66.00">
        <route edges="723852733#6 723852733#7 723852733#8 724469878#0 724469878#1 724469878#2 724469878#3 -724472305#7 -724472305#6 -724472305#5 -724472305#4 -724472305#3 -724472305#2 -724472305#1 -724472305#0 -723828604 723828604 724472305#0 724472305#1 724472305#2"/>
    </vehicle>
    <vehicle id="67" depart="67.00">
        <route edges="-35113721#4 35113721#4 35113721#5 230934665#3 230934665#4 230934665#5 230934665#6 230934665#7 230934665#8 1185423293#0 1185423293#1 1185423293#2 266769168#0 266769168#1 266769168#2 266769168#3 817507914#0 817507914#1 817507914#2 724451984#0 724451984#1 724451984#2 724451984#3 230934666#0"/>
    </vehicle>
    <vehicle id="68" depart="68.00">
        <route edges="-35112908 35113721#4 35113721#5 230934665#3 230934665#4 230934665#5 230934665#6 230934665#7 230934665#8 1185423293#0 1185423293#1 1185423293#2 266769168#0 266769168#1 266769168#2 266769168#3 817507914#0 817507914#1 817507914#2 230934667#0 230934667#1 230934667#2 466513741 1144283678 1180976159 724436409#0 724436409#1 220862996#0 220862996#1 220862996#2 220862996#3 220862996#4 220862996#5 220862996#6 1265743189#0 1265743189#1 1267138239 466200149 1265743190 466130926#0 466130926#1 466130926#2 466130926#3"/>
    </vehicle>
    <vehicle id="69" depart="69.00">
        <route edges="466130926#3 -565183106 719043756#2 719043756#3 719043756#4 719043756#5 719043756#6 1265743177#0 1265743177#1 1265743176 1265743189#0 35113620#0 35113620#1 35113620#2 35113620#3 35113620#4 35113620#5 35113620#6 35113620#7 35113620#8 1123850379 -1276694408#2 -1276694408#1 -1276694408#0 -408162167"/>
    </vehicle>
    <vehicle id="70" depart="70.00">
        <route edges="230934665#0 230934665#1 230934665#2 230934665#3 230934665#4 230934665#5 230934665#6 230934665#7 230934665#8 1185423293#0 1185423293#1 1185423293#2 266769168#0 266769168#1 266769168#2 266769168#3 817507914#0 817507914#1 817507914#2 230934667#0 230934667#1 230934667#2 230935039#0 230935039#1 230935039#2 230935039#3 230935039#4 1271423730#0 1271423730#1 1271423730#2 -1185915485 288732439#0 288732439#1 288732439#2 288732439#3 288732439#4 288732439#5"/>
    </vehicle>
    <vehicle id="71" depart="71.00">
        <route edges="1185915485 -1185915485 288732439#0 288732439#1 288732439#2 288732439#3 288732439#4 288732439#5 -227742900 35113222#0 35113222#1 35113222#2 230934666#0 230934666#1 35114659#0 35114659#1 35114659#2 723852733#4"/>
    </vehicle>
    <vehicle id="72" depart="72.00">
        <route edges="193256696#0 193256696#1 193256696#2 193256696#3 35114852#0 35114852#1 35114852#2 35114852#3 35114852#4 329878185#5 329878185#6 1162414403#0 1162414403#1"/>
    </vehicle>
    <vehicle id="73" depart="73.00">
        <route edges="266769168#2 266769168#3 817507914#0 817507914#1 817507914#2 230934667#0 230934667#1 230934667#2 466513741 1144283678 1180976159 724436409#0 724436409#1 220862996#0 220862996#1 220862996#2 220862996#3 220862996#4 220862996#5 220862996#6 1265743189#0 1265743189#1 1267138239 35115101#0 35115101#1 35115101#2"/>
    </vehicle>
    <vehicle id="75" depart="75.00">
        <route edges="818385418#0 818385418#1 723823269#0 723823269#1 35115032 227742838 466513741 1144283678 1180976159 724436409#0 724436409#1 220862996#0 220862996#1 220862996#2 220862996#3 220862996#4 220862996#5 220862996#6 1265743189#0 35113620#0 35113620#1 35113620#2 35113620#3 35113620#4 35113620#5"/>
    </vehicle>
    <vehicle id="76" depart="76.00">
        <route edges="220862996#3 220862996#4 220862996#5 220862996#6 1265743189#0 1265743189#1 1267138239 466200149 1265743190 466130926#0 466130926#1 466130926#2 466130926#3 466130926#4 466130926#5 245571623#0"/>
    </vehicle>
    <vehicle id="77" depart="77.00">
        <route edges="-35114799#3 -35114799#2 -35114799#1 -35114799#0 -1293827479#2 -1293827479#1 -1293827479#0 -303754188 -230934666#1 -230934666#0 724451983#0 724451983#1 724451983#2 230934667#0 230934667#1 230934667#2 466513741 1144283678 1180976159 724436409#0 724436409#1 220862996#0 220862996#1 220862996#2 220862996#3 220862996#4 220862996#5 220862996#6 1265743189#0 1265743189#1 1267138239 466200149 1265743190 1267006213 1265743177#0 35113101#0 35113101#1 35113101#2 1267913080 1162414403#0 1162414403#1 1162414403#2 1162414403#3 1162414403#4 1162414403#5"/>
    </vehicle>
    <vehicle id="79" depart="79.00">