<?xml version="1.0" encoding="UTF-8"?>

<!-- generated on 2024-07-24 22:56:15 by Eclipse SUMO netconvert Version 1.20.0
<configuration xmlns:xsi="http://www.w3.org/2001/XMLSchema-instance" xsi:noNamespaceSchemaLocation="http://sumo.dlr.de/xsd/netconvertConfiguration.xsd">

    <input>
        <osm-files value="maps/chuanchi.osm"/>
    </input>

    <output>
        <output-file value="maps/chuanchi.net.xml"/>
    </output>

    <projection>
        <proj.utm value="true"/>
    </projection>

</configuration>
-->

<net version="1.20" junctionCornerDetail="5" limitTurnSpeed="5.50" xmlns:xsi="http://www.w3.org/2001/XMLSchema-instance" xsi:noNamespaceSchemaLocation="http://sumo.dlr.de/xsd/net_file.xsd">

    <location netOffset="-683722.83,-1190970.95" convBoundary="0.00,0.00,3425.60,1813.80" origBoundary="106.680331,10.769232,106.711661,10.785494" projParameter="+proj=utm +zone=48 +ellps=WGS84 +datum=WGS84 +units=m +no_defs"/>

    <type id="highway.footway" priority="1" numLanes="1" speed="2.78" allow="pedestrian" oneway="1" width="2.00"/>
    <type id="highway.pedestrian" priority="1" numLanes="1" speed="2.78" allow="pedestrian" oneway="1" width="2.00"/>
    <type id="highway.primary" priority="12" numLanes="2" speed="27.78" disallow="tram rail_urban rail rail_electric rail_fast ship container cable_car subway aircraft wheelchair scooter drone" oneway="0"/>
    <type id="highway.primary_link" priority="7" numLanes="1" speed="22.22" disallow="tram rail_urban rail rail_electric rail_fast ship container cable_car subway aircraft wheelchair scooter drone" oneway="0"/>
    <type id="highway.residential" priority="3" numLanes="1" speed="13.89" disallow="tram rail_urban rail rail_electric rail_fast ship container cable_car subway aircraft wheelchair scooter drone" oneway="0"/>
    <type id="highway.secondary" priority="11" numLanes="1" speed="27.78" disallow="tram rail_urban rail rail_electric rail_fast ship container cable_car subway aircraft wheelchair scooter drone" oneway="0"/>
    <type id="highway.service" priority="1" numLanes="1" speed="5.56" allow="pedestrian delivery bicycle" oneway="0"/>
    <type id="highway.steps" priority="1" numLanes="1" speed="1.39" allow="pedestrian" oneway="1" width="2.00"/>
    <type id="highway.tertiary" priority="10" numLanes="1" speed="22.22" disallow="tram rail_urban rail rail_electric rail_fast ship container cable_car subway aircraft wheelchair scooter drone" oneway="0"/>
    <type id="highway.tertiary_link" priority="5" numLanes="1" speed="22.22" disallow="tram rail_urban rail rail_electric rail_fast ship container cable_car subway aircraft wheelchair scooter drone" oneway="0"/>
    <type id="railway.subway" priority="18" numLanes="1" speed="27.78" allow="subway" oneway="1"/>

    <edge id=":10060289855_0" function="internal">
        <lane id=":10060289855_0_0" index="0" allow="pedestrian delivery bicycle" speed="5.56" length="9.08" shape="549.64,681.67 542.93,675.55"/>
    </edge>
    <edge id=":10060289855_1" function="internal">
        <lane id=":10060289855_1_0" index="0" allow="pedestrian delivery bicycle" speed="5.56" length="10.55" shape="549.64,681.67 547.86,679.35 547.31,677.06 547.99,674.81 549.89,672.59"/>
    </edge>
    <edge id=":10060289855_2" function="internal">
        <lane id=":10060289855_2_0" index="0" allow="pedestrian delivery bicycle" speed="3.65" length="4.67" shape="549.64,681.67 549.34,680.26 549.61,679.41 550.46,679.12 551.87,679.39"/>
    </edge>
    <edge id=":10060289855_3" function="internal">
        <lane id=":10060289855_3_0" index="0" allow="pedestrian delivery bicycle" speed="4.96" length="5.10" shape="552.00,675.00 551.08,676.07 550.75,677.16 551.02,678.27 551.87,679.39"/>
    </edge>
    <edge id=":10060289855_4" function="internal">
        <lane id=":10060289855_4_0" index="0" allow="pedestrian delivery bicycle" speed="5.56" length="10.04" shape="552.00,675.00 549.64,676.60 547.35,677.22 545.11,676.87 542.93,675.55"/>
    </edge>
    <edge id=":10060289855_5" function="internal">
        <lane id=":10060289855_5_0" index="0" allow="pedestrian delivery bicycle" speed="3.65" length="4.67" shape="552.00,675.00 550.57,675.19 549.74,674.85 549.52,673.98 549.89,672.59"/>
    </edge>
    <edge id=":10060289855_6" function="internal">
        <lane id=":10060289855_6_0" index="0" allow="pedestrian delivery bicycle" speed="5.50" length="5.43" shape="545.00,673.10 546.13,673.76 547.32,673.90 548.58,673.51 549.89,672.59"/>
    </edge>
    <edge id=":10060289855_7" function="internal">
        <lane id=":10060289855_7_0" index="0" allow="pedestrian delivery bicycle" speed="5.56" length="9.32" shape="545.00,673.10 551.87,679.39"/>
    </edge>
    <edge id=":10060289855_8" function="internal">
        <lane id=":10060289855_8_0" index="0" allow="pedestrian delivery bicycle" speed="3.65" length="4.67" shape="545.00,673.10 545.40,674.49 545.19,675.36 544.37,675.71 542.93,675.55"/>
    </edge>
    <edge id=":10060289856_0" function="internal">
        <lane id=":10060289856_0_0" index="0" allow="pedestrian delivery bicycle" speed="5.56" length="8.35" shape="562.48,658.81 563.94,660.61 564.41,662.40 563.89,664.18 562.38,665.94"/>
    </edge>
    <edge id=":10060289856_1" function="internal">
        <lane id=":10060289856_1_0" index="0" allow="pedestrian delivery bicycle" speed="3.90" length="2.78" shape="560.27,663.53 560.78,662.94 560.95,662.35 560.80,661.75 560.31,661.15"/>
    </edge>
    <edge id=":10112541950_0" function="internal">
        <lane id=":10112541950_0_0" index="0" allow="pedestrian delivery bicycle" speed="3.65" length="4.67" shape="1255.46,887.65 1254.02,887.80 1253.20,887.44 1253.00,886.57 1253.41,885.19"/>
    </edge>
    <edge id=":10187491225_0" function="internal">
        <lane id=":10187491225_0_0" index="0" allow="pedestrian delivery bicycle" speed="5.56" length="9.05" shape="719.53,258.68 712.64,264.55"/>
    </edge>
    <edge id=":10187491225_1" function="internal">
        <lane id=":10187491225_1_0" index="0" allow="pedestrian delivery bicycle" speed="5.56" length="10.06" shape="719.53,258.68 717.15,260.07 714.89,260.37 712.75,259.60 710.72,257.75"/>
    </edge>
    <edge id=":10187491225_2" function="internal">
        <lane id=":10187491225_2_0" index="0" allow="pedestrian delivery bicycle" speed="3.65" length="4.67" shape="719.53,258.68 718.09,258.80 717.28,258.42 717.10,257.54 717.54,256.17"/>
    </edge>
    <edge id=":10187491225_3" function="internal">
        <lane id=":10187491225_3_0" index="0" allow="pedestrian delivery bicycle" speed="5.06" length="4.98" shape="713.18,255.71 714.19,256.63 715.25,257.01 716.37,256.86 717.54,256.17"/>
    </edge>
    <edge id=":10187491225_4" function="internal">
        <lane id=":10187491225_4_0" index="0" allow="pedestrian delivery bicycle" speed="5.56" length="9.99" shape="713.18,255.71 714.62,258.04 715.00,260.29 714.34,262.46 712.64,264.55"/>
    </edge>
    <edge id=":10187491225_5" function="internal">
        <lane id=":10187491225_5_0" index="0" allow="pedestrian delivery bicycle" speed="3.65" length="4.67" shape="713.18,255.71 713.33,257.15 712.97,257.96 712.10,258.16 710.72,257.75"/>
    </edge>
    <edge id=":10187491225_6" function="internal">
        <lane id=":10187491225_6_0" index="0" allow="pedestrian delivery bicycle" speed="5.13" length="5.02" shape="710.47,262.19 711.32,261.15 711.65,260.06 711.44,258.93 710.72,257.75"/>
    </edge>
    <edge id=":10187491225_7" function="internal">
        <lane id=":10187491225_7_0" index="0" allow="pedestrian delivery bicycle" speed="5.56" length="9.28" shape="710.47,262.19 717.54,256.17"/>
    </edge>
    <edge id=":10187491225_8" function="internal">
        <lane id=":10187491225_8_0" index="0" allow="pedestrian delivery bicycle" speed="3.65" length="4.67" shape="710.47,262.19 711.90,261.97 712.73,262.29 712.98,263.15 712.64,264.55"/>
    </edge>
    <edge id=":10225168465_0" function="internal">
        <lane id=":10225168465_0_0" index="0" allow="pedestrian delivery bicycle" speed="4.65" length="6.67" shape="821.62,423.26 821.25,421.19 820.48,420.33 819.32,420.67 817.75,422.22"/>
    </edge>
    <edge id=":10225168465_1" function="internal">
        <lane id=":10225168465_1_0" index="0" allow="pedestrian delivery bicycle" speed="5.56" length="14.52" shape="821.62,423.26 821.77,418.33 822.97,415.03 825.20,413.35 828.48,413.30"/>
    </edge>
    <edge id=":10225168465_2" function="internal">
        <lane id=":10225168465_2_0" index="0" allow="pedestrian delivery bicycle" speed="4.74" length="6.15" shape="821.62,423.26 822.36,421.51 823.29,420.79 824.43,421.11 825.76,422.46"/>
    </edge>
    <edge id=":10225168465_3" function="internal">
        <lane id=":10225168465_3_0" index="0" allow="pedestrian delivery bicycle" speed="5.56" length="22.36" shape="827.86,416.44 819.87,415.25 816.86,415.86 818.82,418.26 825.76,422.46"/>
    </edge>
    <edge id=":10225168465_4" function="internal">
        <lane id=":10225168465_4_0" index="0" allow="pedestrian delivery bicycle" speed="5.56" length="12.17" shape="827.86,416.44 825.49,416.45 823.02,417.42 820.44,419.34 817.75,422.22"/>
    </edge>
    <edge id=":10225168465_5" function="internal">
        <lane id=":10225168465_5_0" index="0" allow="pedestrian delivery bicycle" speed="3.65" length="4.67" shape="827.86,416.44 826.84,415.42 826.60,414.55 827.15,413.85 828.48,413.30"/>
    </edge>
    <edge id=":10225168465_6" function="internal">
        <lane id=":10225168465_6_0" index="0" allow="pedestrian delivery bicycle" speed="5.56" length="15.62" shape="815.28,420.19 818.62,416.69 821.93,414.37 825.22,413.24 828.48,413.30"/>
    </edge>
    <edge id=":10225168465_7" function="internal">
        <lane id=":10225168465_7_0" index="0" allow="pedestrian delivery bicycle" speed="5.56" length="11.27" shape="815.28,420.19 816.66,419.45 818.86,419.58 821.90,420.59 825.76,422.46"/>
    </edge>
    <edge id=":10225168465_8" function="internal">
        <lane id=":10225168465_8_0" index="0" allow="pedestrian delivery bicycle" speed="3.65" length="4.67" shape="815.28,420.19 816.66,419.77 817.53,419.97 817.90,420.78 817.75,422.22"/>
    </edge>
    <edge id=":10225229881_0" function="internal">
        <lane id=":10225229881_0_0" index="0" allow="pedestrian delivery bicycle" speed="3.65" length="4.67" shape="852.98,400.24 854.32,399.70 855.20,399.83 855.64,400.61 855.62,402.05"/>
    </edge>
    <edge id=":10225437083_0" function="internal">
        <lane id=":10225437083_0_0" index="0" allow="pedestrian delivery bicycle" speed="3.65" length="4.67" shape="735.09,280.33 735.31,281.76 735.00,282.59 734.14,282.84 732.73,282.50"/>
    </edge>
    <edge id=":10225437085_0" function="internal">
        <lane id=":10225437085_0_0" index="0" allow="pedestrian delivery bicycle" speed="5.02" length="5.02" shape="772.49,248.48 771.45,247.59 770.37,247.24 769.26,247.46 768.11,248.23"/>
    </edge>
    <edge id=":10225437085_1" function="internal">
        <lane id=":10225437085_1_0" index="0" disallow="tram rail_urban rail rail_electric rail_fast ship container cable_car subway aircraft wheelchair scooter drone" speed="27.78" length="9.40" shape="772.49,248.48 766.30,241.41"/>
        <lane id=":10225437085_1_1" index="1" disallow="tram rail_urban rail rail_electric rail_fast ship container cable_car subway aircraft wheelchair scooter drone" speed="27.78" length="9.40" shape="774.90,246.38 768.71,239.30"/>
    </edge>
    <edge id=":10225437085_3" function="internal">
        <lane id=":10225437085_3_0" index="0" allow="pedestrian delivery bicycle" speed="5.10" length="5.07" shape="765.97,245.86 766.87,244.78 767.23,243.68 767.04,242.56 766.30,241.41"/>
    </edge>
    <edge id=":10225437085_4" function="internal">
        <lane id=":10225437085_4_0" index="0" allow="pedestrian delivery bicycle" speed="3.65" length="4.67" shape="765.97,245.86 767.39,245.65 768.23,245.97 768.47,246.83 768.11,248.23"/>
    </edge>
    <edge id=":10228160933_0" function="internal">
        <lane id=":10228160933_0_0" index="0" allow="pedestrian delivery bicycle" speed="5.19" length="5.19" shape="539.91,377.06 538.63,376.31 537.44,376.11 536.34,376.45 535.31,377.33"/>
    </edge>
    <edge id=":10228160933_1" function="internal">
        <lane id=":10228160933_1_0" index="0" allow="pedestrian delivery bicycle" speed="5.56" length="10.38" shape="539.91,377.06 538.85,375.78 538.02,373.73 537.39,370.91 536.98,367.32"/>
    </edge>
    <edge id=":10228160933_2" function="internal">
        <lane id=":10228160933_2_0" index="0" allow="pedestrian delivery bicycle" speed="3.65" length="4.67" shape="539.91,377.06 539.45,375.70 539.62,374.82 540.43,374.43 541.87,374.54"/>
    </edge>
    <edge id=":10228160933_3" function="internal">
        <lane id=":10228160933_3_0" index="0" allow="pedestrian delivery bicycle" speed="5.56" length="5.08" shape="540.38,369.79 540.58,371.52 540.90,372.89 541.33,373.89 541.87,374.54"/>
    </edge>
    <edge id=":10228160933_4" function="internal">
        <lane id=":10228160933_4_0" index="0" allow="pedestrian delivery bicycle" speed="5.56" length="9.57" shape="540.38,369.79 540.15,372.39 539.08,373.96 537.40,375.33 535.31,377.33"/>
    </edge>
    <edge id=":10228160933_5" function="internal">
        <lane id=":10228160933_5_0" index="0" allow="pedestrian delivery bicycle" speed="4.02" length="6.14" shape="540.38,369.79 538.60,370.45 537.44,370.26 536.90,369.21 536.98,367.32"/>
    </edge>
    <edge id=":10228160933_6" function="internal">
        <lane id=":10228160933_6_0" index="0" allow="pedestrian delivery bicycle" speed="5.56" length="9.36" shape="532.88,375.26 534.79,373.21 536.14,371.68 536.89,369.96 536.98,367.32"/>
    </edge>
    <edge id=":10228160933_7" function="internal">
        <lane id=":10228160933_7_0" index="0" allow="pedestrian delivery bicycle" speed="5.56" length="10.19" shape="532.88,375.26 534.92,373.47 537.10,372.76 539.41,373.11 541.87,374.54"/>
    </edge>
    <edge id=":10228160933_8" function="internal">
        <lane id=":10228160933_8_0" index="0" allow="pedestrian delivery bicycle" speed="3.65" length="4.67" shape="532.88,375.26 534.26,374.86 535.13,375.08 535.48,375.90 535.31,377.33"/>
    </edge>
    <edge id=":10228160935_0" function="internal">
        <lane id=":10228160935_0_0" index="0" allow="pedestrian delivery bicycle" speed="5.56" length="3.82" shape="548.13,361.78 547.42,362.45 546.62,362.94 545.74,363.26 544.78,363.40"/>
    </edge>
    <edge id=":10228160935_1" function="internal">
        <lane id=":10228160935_1_0" index="0" allow="pedestrian delivery bicycle" speed="4.19" length="1.27" shape="544.61,360.20 544.93,360.16 545.22,360.05 545.49,359.89 545.72,359.66"/>
    </edge>
    <edge id=":10229060806_0" function="internal">
        <lane id=":10229060806_0_0" index="0" allow="pedestrian delivery bicycle" speed="5.31" length="5.23" shape="674.00,391.10 672.89,390.38 671.74,390.19 670.55,390.53 669.32,391.39"/>
    </edge>
    <edge id=":10229060806_1" function="internal">
        <lane id=":10229060806_1_0" index="0" allow="pedestrian delivery bicycle" speed="5.56" length="9.30" shape="674.00,391.10 667.32,384.63"/>
    </edge>
    <edge id=":10229060806_2" function="internal">
        <lane id=":10229060806_2_0" index="0" allow="pedestrian delivery bicycle" speed="3.65" length="4.67" shape="674.00,391.10 673.64,389.70 673.88,388.84 674.71,388.52 676.14,388.72"/>
    </edge>
    <edge id=":10229060806_3" function="internal">
        <lane id=":10229060806_3_0" index="0" allow="pedestrian delivery bicycle" speed="5.56" length="9.07" shape="669.62,382.41 676.14,388.72"/>
    </edge>
    <edge id=":10229060806_4" function="internal">
        <lane id=":10229060806_4_0" index="0" allow="pedestrian delivery bicycle" speed="5.56" length="10.32" shape="669.62,382.41 671.29,384.71 671.79,386.98 671.13,389.20 669.32,391.39"/>
    </edge>
    <edge id=":10229060806_5" function="internal">
        <lane id=":10229060806_5_0" index="0" allow="pedestrian delivery bicycle" speed="3.65" length="4.67" shape="669.62,382.41 669.88,383.83 669.58,384.67 668.73,384.94 667.32,384.63"/>
    </edge>
    <edge id=":10229060806_6" function="internal">
        <lane id=":10229060806_6_0" index="0" allow="pedestrian delivery bicycle" speed="5.01" length="5.04" shape="667.17,389.02 668.06,387.95 668.38,386.86 668.13,385.76 667.32,384.63"/>
    </edge>
    <edge id=":10229060806_7" function="internal">
        <lane id=":10229060806_7_0" index="0" allow="pedestrian delivery bicycle" speed="5.56" length="10.01" shape="667.17,389.02 669.47,387.43 671.73,386.85 673.95,387.28 676.14,388.72"/>
    </edge>
    <edge id=":10229060806_8" function="internal">
        <lane id=":10229060806_8_0" index="0" allow="pedestrian delivery bicycle" speed="3.65" length="4.67" shape="667.17,389.02 668.60,388.80 669.43,389.13 669.67,389.99 669.32,391.39"/>
    </edge>
    <edge id=":10229060808_0" function="internal">
        <lane id=":10229060808_0_0" index="0" disallow="tram rail_urban rail rail_electric rail_fast ship container cable_car subway aircraft wheelchair scooter drone" speed="13.89" length="7.39" shape="576.49,494.64 571.35,489.33"/>
        <lane id=":10229060808_0_1" index="1" disallow="tram rail_urban rail rail_electric rail_fast ship container cable_car subway aircraft wheelchair scooter drone" speed="13.89" length="7.39" shape="578.79,492.41 573.64,487.11"/>
        <lane id=":10229060808_0_2" index="2" disallow="tram rail_urban rail rail_electric rail_fast ship container cable_car subway aircraft wheelchair scooter drone" speed="13.89" length="7.39" shape="581.08,490.18 575.94,484.88"/>
    </edge>
    <edge id=":10229060808_3" function="internal">
        <lane id=":10229060808_3_0" index="0" allow="pedestrian delivery bicycle" speed="6.13" length="7.79" shape="581.08,490.18 579.31,488.07 578.36,486.25 578.23,484.71 578.92,483.46"/>
    </edge>
    <edge id=":10229060808_4" function="internal">
        <lane id=":10229060808_4_0" index="0" allow="pedestrian delivery bicycle" speed="6.36" length="8.70" shape="581.19,485.71 579.03,487.50 577.05,488.33 575.26,488.20 573.64,487.11"/>
        <lane id=":10229060808_4_1" index="1" allow="pedestrian delivery bicycle" speed="5.43" length="6.05" shape="581.19,485.71 580.02,486.51 578.76,486.63 577.39,486.09 575.94,484.88"/>
    </edge>
    <edge id=":10229060808_6" function="internal">
        <lane id=":10229060808_6_0" index="0" allow="pedestrian delivery bicycle" speed="3.65" length="4.67" shape="581.19,485.71 579.78,486.00 578.93,485.72 578.64,484.87 578.92,483.46"/>
    </edge>
    <edge id=":10229707870_0" function="internal">
        <lane id=":10229707870_0_0" index="0" allow="pedestrian delivery bicycle" speed="5.44" length="4.98" shape="1172.94,266.57 1171.60,266.23 1170.42,266.31 1169.40,266.83 1168.54,267.77"/>
    </edge>
    <edge id=":10229707870_1" function="internal">
        <lane id=":10229707870_1_0" index="0" allow="pedestrian delivery bicycle" speed="5.56" length="9.57" shape="1172.94,266.57 1170.69,265.31 1169.28,263.61 1168.72,261.48 1169.00,258.92"/>
    </edge>
    <edge id=":10229707870_2" function="internal">
        <lane id=":10229707870_2_0" index="0" allow="pedestrian delivery bicycle" speed="3.65" length="4.67" shape="1172.94,266.57 1172.11,265.39 1172.03,264.50 1172.69,263.90 1174.10,263.59"/>
    </edge>
    <edge id=":10229707870_3" function="internal">
        <lane id=":10229707870_3_0" index="0" allow="pedestrian delivery bicycle" speed="5.19" length="4.86" shape="1172.10,259.70 1171.96,261.01 1172.25,262.09 1172.96,262.95 1174.10,263.59"/>
    </edge>
    <edge id=":10229707870_4" function="internal">
        <lane id=":10229707870_4_0" index="0" allow="pedestrian delivery bicycle" speed="5.56" length="8.89" shape="1172.10,259.70 1171.44,262.25 1170.84,263.97 1169.99,265.57 1168.54,267.77"/>
    </edge>
    <edge id=":10229707870_5" function="internal">
        <lane id=":10229707870_5_0" index="0" allow="pedestrian delivery bicycle" speed="3.65" length="4.67" shape="1172.10,259.70 1171.03,260.67 1170.16,260.86 1169.48,260.28 1169.00,258.92"/>
    </edge>
    <edge id=":10229707870_6" function="internal">
        <lane id=":10229707870_6_0" index="0" allow="pedestrian delivery bicycle" speed="5.56" length="7.78" shape="1165.89,265.98 1167.15,264.05 1167.90,262.65 1168.42,261.15 1169.00,258.92"/>
    </edge>
    <edge id=":10229707870_7" function="internal">
        <lane id=":10229707870_7_0" index="0" allow="pedestrian delivery bicycle" speed="5.56" length="9.34" shape="1165.89,265.98 1167.52,264.17 1169.44,263.17 1171.63,262.97 1174.10,263.59"/>
    </edge>
    <edge id=":10229707870_8" function="internal">
        <lane id=":10229707870_8_0" index="0" allow="pedestrian delivery bicycle" speed="3.65" length="4.67" shape="1165.89,265.98 1167.23,265.43 1168.11,265.54 1168.55,266.32 1168.54,267.77"/>
    </edge>
    <edge id=":10229707871_0" function="internal">
        <lane id=":10229707871_0_0" index="0" allow="pedestrian delivery bicycle" speed="5.07" length="4.96" shape="1183.51,227.21 1182.16,227.10 1181.09,227.45 1180.29,228.25 1179.78,229.50"/>
    </edge>
    <edge id=":10229707871_1" function="internal">
        <lane id=":10229707871_1_0" index="0" disallow="tram rail_urban rail rail_electric rail_fast ship container cable_car subway aircraft wheelchair scooter drone" speed="22.22" length="9.19" shape="1183.51,227.21 1174.60,224.95"/>
    </edge>
    <edge id=":10229707871_2" function="internal">
        <lane id=":10229707871_2_0" index="0" allow="pedestrian delivery bicycle" speed="5.00" length="4.90" shape="1176.68,228.71 1176.84,227.34 1176.54,226.26 1175.80,225.46 1174.60,224.95"/>
    </edge>
    <edge id=":10229707871_3" function="internal">
        <lane id=":10229707871_3_0" index="0" allow="pedestrian delivery bicycle" speed="3.65" length="4.67" shape="1176.68,228.71 1177.75,227.75 1178.62,227.56 1179.30,228.14 1179.78,229.50"/>
    </edge>
    <edge id=":10229726317_0" function="internal">
        <lane id=":10229726317_0_0" index="0" allow="pedestrian delivery bicycle" speed="3.65" length="4.67" shape="1220.79,296.99 1220.40,295.60 1220.62,294.73 1221.44,294.39 1222.88,294.56"/>
    </edge>
    <edge id=":10230401265_0" function="internal">
        <lane id=":10230401265_0_0" index="0" allow="pedestrian delivery bicycle" speed="3.65" length="4.67" shape="785.79,569.28 784.35,569.27 783.57,568.82 783.47,567.93 784.03,566.60"/>
    </edge>
    <edge id=":10230407127_0" function="internal">
        <lane id=":10230407127_0_0" index="0" allow="pedestrian delivery bicycle" speed="4.97" length="5.09" shape="760.85,570.04 759.97,568.95 758.96,568.42 757.83,568.48 756.57,569.10"/>
    </edge>
    <edge id=":10230407127_1" function="internal">
        <lane id=":10230407127_1_0" index="0" allow="pedestrian delivery bicycle" speed="5.56" length="8.72" shape="760.85,570.04 759.63,567.48 759.24,565.32 759.66,563.55 760.90,562.17"/>
    </edge>
    <edge id=":10230407127_2" function="internal">
        <lane id=":10230407127_2_0" index="0" allow="pedestrian delivery bicycle" speed="3.65" length="4.67" shape="760.85,570.04 760.93,568.60 761.41,567.85 762.31,567.79 763.61,568.42"/>
    </edge>
    <edge id=":10230407127_3" function="internal">
        <lane id=":10230407127_3_0" index="0" allow="pedestrian delivery bicycle" speed="4.72" length="3.97" shape="762.77,564.77 762.47,565.24 762.51,566.01 762.89,567.07 763.61,568.42"/>
    </edge>
    <edge id=":10230407127_4" function="internal">
        <lane id=":10230407127_4_0" index="0" allow="pedestrian delivery bicycle" speed="5.56" length="7.56" shape="762.77,564.77 756.57,569.10"/>
    </edge>
    <edge id=":10230407127_5" function="internal">
        <lane id=":10230407127_5_0" index="0" allow="pedestrian delivery bicycle" speed="3.65" length="4.67" shape="762.77,564.77 761.32,564.82 760.53,564.40 760.39,563.51 760.90,562.17"/>
    </edge>
    <edge id=":10230407127_6" function="internal">
        <lane id=":10230407127_6_0" index="0" allow="pedestrian delivery bicycle" speed="5.56" length="7.51" shape="754.75,566.47 760.90,562.17"/>
    </edge>
    <edge id=":10230407127_7" function="internal">
        <lane id=":10230407127_7_0" index="0" allow="pedestrian delivery bicycle" speed="5.56" length="10.52" shape="754.75,566.47 757.35,565.17 759.70,565.07 761.78,566.15 763.61,568.42"/>
    </edge>
    <edge id=":10230407127_8" function="internal">
        <lane id=":10230407127_8_0" index="0" allow="pedestrian delivery bicycle" speed="3.65" length="4.67" shape="754.75,566.47 756.19,566.45 756.97,566.88 757.10,567.76 756.57,569.10"/>
    </edge>
    <edge id=":10239421137_0" function="internal">
        <lane id=":10239421137_0_0" index="0" allow="pedestrian delivery bicycle" speed="4.96" length="5.09" shape="1191.44,273.57 1190.06,273.30 1188.95,273.56 1188.12,274.34 1187.58,275.64"/>
    </edge>
    <edge id=":10239421137_1" function="internal">
        <lane id=":10239421137_1_0" index="0" allow="pedestrian delivery bicycle" speed="5.56" length="9.36" shape="1191.44,273.57 1182.65,270.35"/>
    </edge>
    <edge id=":10239421137_2" function="internal">
        <lane id=":10239421137_2_0" index="0" allow="pedestrian delivery bicycle" speed="3.65" length="4.67" shape="1191.44,273.57 1190.57,272.42 1190.45,271.53 1191.09,270.91 1192.48,270.54"/>
    </edge>
    <edge id=":10239421137_3" function="internal">
        <lane id=":10239421137_3_0" index="0" allow="pedestrian delivery bicycle" speed="5.56" length="9.24" shape="1183.81,267.37 1192.48,270.54"/>
    </edge>
    <edge id=":10239421137_4" function="internal">
        <lane id=":10239421137_4_0" index="0" allow="pedestrian delivery bicycle" speed="5.56" length="10.11" shape="1183.81,267.37 1186.06,268.67 1187.44,270.49 1187.94,272.81 1187.58,275.64"/>
    </edge>
    <edge id=":10239421137_5" function="internal">
        <lane id=":10239421137_5_0" index="0" allow="pedestrian delivery bicycle" speed="3.65" length="4.67" shape="1183.81,267.37 1184.64,268.55 1184.72,269.44 1184.06,270.04 1182.65,270.35"/>
    </edge>
    <edge id=":10239421137_6" function="internal">
        <lane id=":10239421137_6_0" index="0" allow="pedestrian delivery bicycle" speed="5.40" length="5.38" shape="1184.48,274.83 1184.70,273.27 1184.47,272.00 1183.78,271.03 1182.65,270.35"/>
    </edge>
    <edge id=":10239421137_7" function="internal">
        <lane id=":10239421137_7_0" index="0" allow="pedestrian delivery bicycle" speed="5.56" length="10.55" shape="1184.48,274.83 1185.61,272.14 1187.32,270.53 1189.61,269.99 1192.48,270.54"/>
    </edge>
    <edge id=":10239421137_8" function="internal">
        <lane id=":10239421137_8_0" index="0" allow="pedestrian delivery bicycle" speed="3.65" length="4.67" shape="1184.48,274.83 1185.56,273.87 1186.43,273.69 1187.10,274.28 1187.58,275.64"/>
    </edge>
    <edge id=":10239421138_0" function="internal">
        <lane id=":10239421138_0_0" index="0" allow="pedestrian delivery bicycle" speed="3.65" length="4.67" shape="1193.84,312.34 1192.40,312.43 1191.60,312.04 1191.43,311.16 1191.90,309.79"/>
    </edge>
    <edge id=":10240865875_0" function="internal">
        <lane id=":10240865875_0_0" index="0" allow="pedestrian delivery bicycle" speed="5.33" length="5.32" shape="738.14,155.90 736.85,155.04 735.63,154.72 734.47,154.95 733.38,155.71"/>
    </edge>
    <edge id=":10240865875_1" function="internal">
        <lane id=":10240865875_1_0" index="0" allow="pedestrian delivery bicycle" speed="5.56" length="10.50" shape="738.14,155.90 736.22,153.71 735.51,151.48 736.01,149.19 737.73,146.84"/>
    </edge>
    <edge id=":10240865875_2" function="internal">
        <lane id=":10240865875_2_0" index="0" allow="pedestrian delivery bicycle" speed="3.65" length="4.67" shape="738.14,155.90 737.74,154.51 737.96,153.64 738.78,153.29 740.21,153.46"/>
    </edge>
    <edge id=":10240865875_3" function="internal">
        <lane id=":10240865875_3_0" index="0" allow="pedestrian delivery bicycle" speed="4.97" length="5.08" shape="740.02,149.08 739.19,150.21 738.94,151.32 739.28,152.41 740.21,153.46"/>
    </edge>
    <edge id=":10240865875_4" function="internal">
        <lane id=":10240865875_4_0" index="0" allow="pedestrian delivery bicycle" speed="5.56" length="9.38" shape="740.02,149.08 733.38,155.71"/>
    </edge>
    <edge id=":10240865875_5" function="internal">
        <lane id=":10240865875_5_0" index="0" allow="pedestrian delivery bicycle" speed="3.65" length="4.67" shape="740.02,149.08 738.60,149.38 737.75,149.10 737.46,148.26 737.73,146.84"/>
    </edge>
    <edge id=":10240865875_6" function="internal">
        <lane id=":10240865875_6_0" index="0" allow="pedestrian delivery bicycle" speed="5.56" length="9.30" shape="731.15,153.42 737.73,146.84"/>
    </edge>
    <edge id=":10240865875_7" function="internal">
        <lane id=":10240865875_7_0" index="0" allow="pedestrian delivery bicycle" speed="5.56" length="10.14" shape="731.15,153.42 733.29,151.88 735.52,151.38 737.82,151.91 740.21,153.46"/>
    </edge>
    <edge id=":10240865875_8" function="internal">
        <lane id=":10240865875_8_0" index="0" allow="pedestrian delivery bicycle" speed="3.65" length="4.67" shape="731.15,153.42 732.56,153.15 733.41,153.45 733.68,154.30 733.38,155.71"/>
    </edge>
    <edge id=":10241979825_0" function="internal">
        <lane id=":10241979825_0_0" index="0" allow="pedestrian delivery bicycle" speed="4.88" length="8.15" shape="521.71,258.39 519.59,260.61 518.99,262.03 519.90,262.66 522.32,262.50"/>
    </edge>